Circuit: * C:\Users\C Gangadhara\OneDrive\Documents\Desktop\Temperarure sensor.asc

Warning: Multiple definitions of model "2scr375p" Type: BJT
Warning: Multiple definitions of model "bc857b" Type: BJT
Warning: Multiple definitions of model "bc847c" Type: BJT
Warning: Multiple definitions of model "bc847b" Type: BJT
Direct Newton iteration for .op point succeeded.
.step r=1
.step r=11
.step r=21
.step r=31
.step r=41
.step r=51
.step r=61
.step r=71
.step r=81
.step r=91
.step r=100

Date: Sat Jul 30 10:16:46 2022
Total elapsed time: 1.629 seconds.

tnom = 27
temp = 27
method = modified trap
totiter = 30047
traniter = 30040
tranpoints = 15021
accept = 15021
rejected = 0
matrix size = 8
fillins = 0
solver = Normal
Matrix Compiler1: 478 bytes object code size  0.1/0.1/[0.0]
Matrix Compiler2: 642 bytes object code size  0.0/0.1/[0.0]

